<?xml version="1.0" encoding="UTF-8"?>

<net version="1.9" junctionCornerDetail="5" limitTurnSpeed="5.50"
    xmlns:xsi="http://www.w3.org/2001/XMLSchema-instance" xsi:noNamespaceSchemaLocation="http://sumo.dlr.de/xsd/net_file.xsd">

    <location netOffset="0.00,0.00" convBoundary="0.00,100.00,200.00,100.00" origBoundary="-10000000000.00,-10000000000.00,10000000000.00,10000000000.00" projParameter="!"/>

    <edge id="gneE3" from="gneJ4" to="gneJ6" priority="-1" spreadType="center">
        <lane id="gneE3_0" index="0" speed="13.89" length="200.00" shape="0.00,96.80 200.00,96.80"/>
        <lane id="gneE3_1" index="1" speed="13.89" length="200.00" shape="0.00,100.00 200.00,100.00"/>
        <lane id="gneE3_2" index="2" speed="13.89" length="200.00" shape="0.00,103.20 200.00,103.20"/>
    </edge>

    <junction id="gneJ4" type="dead_end" x="0.00" y="100.00" incLanes="" intLanes="" shape="0.00,104.80 0.00,95.20"/>
    <junction id="gneJ6" type="dead_end" x="200.00" y="100.00" incLanes="gneE3_0 gneE3_1 gneE3_2" intLanes="" shape="200.00,95.20 200.00,104.80"/>

</net>
