<?xml version="1.0" encoding="UTF-8"?>

<!-- generated on 2024-05-06 19:30:43 by Eclipse SUMO netedit Version 1.19.0
<configuration xmlns:xsi="http://www.w3.org/2001/XMLSchema-instance" xsi:noNamespaceSchemaLocation="http://sumo.dlr.de/xsd/neteditConfiguration.xsd">

    <input>
        <sumo-net-file value="C:\Users\Zonularity\Downloads\sumo-win64extra-1.19.0\map.net.xml"/>
    </input>

    <output>
        <output-file value="C:\Users\Zonularity\Downloads\sumo-win64extra-1.19.0\map.net.xml"/>
    </output>

    <processing>
        <geometry.min-radius.fix.railways value="false"/>
        <geometry.max-grade.fix value="false"/>
        <offset.disable-normalization value="true"/>
        <lefthand value="0"/>
    </processing>

    <junctions>
        <no-internal-links value="true"/>
        <no-turnarounds value="true"/>
        <junctions.corner-detail value="5"/>
        <junctions.limit-turn-speed value="5.50"/>
        <rectangular-lane-cut value="0"/>
    </junctions>

    <pedestrian>
        <walkingareas value="0"/>
    </pedestrian>

</configuration>
-->

<net version="1.16" junctionCornerDetail="5" limitTurnSpeed="5.50"
    xmlns:xsi="http://www.w3.org/2001/XMLSchema-instance" xsi:noNamespaceSchemaLocation="http://sumo.dlr.de/xsd/net_file.xsd">

    <location netOffset="0.00,0.00" convBoundary="0.00,100.00,200.00,100.00" origBoundary="-10000000000.00,-10000000000.00,10000000000.00,10000000000.00" projParameter="!"/>

    <edge id="projE3" from="projJ4" to="projJ6" priority="-1" spreadType="center">
        <lane id="projE3_0" index="0" speed="13.89" length="200.00" shape="0.00,96.80 200.00,96.80"/>
        <lane id="projE3_1" index="1" speed="13.89" length="200.00" shape="0.00,100.00 200.00,100.00"/>
        <lane id="projE3_2" index="2" speed="13.89" length="200.00" shape="0.00,103.20 200.00,103.20"/>
    </edge>

    <junction id="projJ4" type="dead_end" x="0.00" y="100.00" incLanes="" intLanes="" shape="0.00,104.80 0.00,95.20"/>
    <junction id="projJ6" type="dead_end" x="200.00" y="100.00" incLanes="projE3_0 projE3_1 projE3_2" intLanes="" shape="200.00,95.20 200.00,104.80"/>

</net>
